data_CsGeCl3
_audit_creation_date              2024-07-04
_audit_creation_method            'Materials Studio'
_symmetry_space_group_name_H-M    'P1'
_symmetry_Int_Tables_number       1
_symmetry_cell_setting            triclinic
loop_
_symmetry_equiv_pos_as_xyz
  x,y,z
_cell_length_a                    7.6936
_cell_length_b                    7.6936
_cell_length_c                    9.5349
_cell_angle_alpha                 90.0000
_cell_angle_beta                  90.0000
_cell_angle_gamma                 120.0000
loop_
_atom_site_label
_atom_site_type_symbol
_atom_site_fract_x
_atom_site_fract_y
_atom_site_fract_z
_atom_site_U_iso_or_equiv
_atom_site_adp_type
_atom_site_occupancy
Cs0    Cs    0.33333   0.66667   0.66507   0.00000  Uiso   1.00
Cs1    Cs    0.00000   0.00000   0.99840   0.00000  Uiso   1.00
Cs2    Cs    0.66667   0.33333   0.33174   0.00000  Uiso   1.00
Ge3    Cu    0.33333   0.66667   0.18220   0.00000  Uiso   1.00
Ge4    Cu    0.00000   0.00000   0.51553   0.00000  Uiso   1.00
Ge5    Cu    0.66667   0.33333   0.84887   0.00000  Uiso   1.00
Cl6    Cl    0.18269   0.36538   0.31402   0.00000  Uiso   1.00
Cl7    Cl    0.18269   0.81731   0.31402   0.00000  Uiso   1.00
Cl8    Cl    0.63462   0.81731   0.31402   0.00000  Uiso   1.00
Cl9    Cl    0.84936   0.69872   0.64735   0.00000  Uiso   1.00
Cl10   Cl    0.84936   0.15064   0.64735   0.00000  Uiso   1.00
Cl11   Cl    0.30128   0.15064   0.64735   0.00000  Uiso   1.00
Cl12   Cl    0.51602   0.03205   0.98069   0.00000  Uiso   1.00
Cl13   Cl    0.51602   0.48398   0.98069   0.00000  Uiso   1.00
Cl14   Cl    0.96795   0.48398   0.98069   0.00000  Uiso   1.00
