# generated using pymatgen
data_CsGeCl3
_symmetry_space_group_name_H-M   'P 1'
_cell_length_a   7.69363278
_cell_length_b   7.69363278
_cell_length_c   9.53490160
_cell_angle_alpha   90.00000000
_cell_angle_beta   90.00000000
_cell_angle_gamma   120.00000000
_symmetry_Int_Tables_number   1
_chemical_formula_structural   CsGeCl3
_chemical_formula_sum   'Cs3 Ge3 Cl9'
_cell_volume   488.77586643
_cell_formula_units_Z   3
loop_
 _symmetry_equiv_pos_site_id
 _symmetry_equiv_pos_as_xyz
  1  'x, y, z'
loop_
 _atom_type_symbol
 _atom_type_oxidation_number
  Cs+  1.0
  Ge2+  2.0
  Cl-  -1.0
loop_
 _atom_site_type_symbol
 _atom_site_label
 _atom_site_symmetry_multiplicity
 _atom_site_fract_x
 _atom_site_fract_y
 _atom_site_fract_z
 _atom_site_occupancy
  Cs+  Cs0  1  0.33333333  0.66666667  0.66507002  1
  Cs+  Cs1  1  0.00000000  0.00000000  0.99840335  1
  Cs+  Cs2  1  0.66666667  0.33333333  0.33173668  1
  Ge2+  Ge3  1  0.33333333  0.66666667  0.18219982  1
  Ge2+  Ge4  1  0.00000000  0.00000000  0.51553315  1
  Ge2+  Ge5  1  0.66666667  0.33333333  0.84886648  1
  Cl-  Cl6  1  0.18269150  0.36538300  0.31402117  1
  Cl-  Cl7  1  0.18269150  0.81730850  0.31402117  1
  Cl-  Cl8  1  0.63461700  0.81730850  0.31402117  1
  Cl-  Cl9  1  0.84935817  0.69871633  0.64735450  1
  Cl-  Cl10  1  0.84935817  0.15064183  0.64735450  1
  Cl-  Cl11  1  0.30128367  0.15064183  0.64735450  1
  Cl-  Cl12  1  0.51602483  0.03204967  0.98068784  1
  Cl-  Cl13  1  0.51602483  0.48397517  0.98068784  1
  Cl-  Cl14  1  0.96795033  0.48397517  0.98068784  1
